REMARK 10 active torsions:
REMARK status: ('A' for Active; 'I' for Inactive)
REMARK 1 A between atoms: C08_8 and N01_1
REMARK 2 A between atoms: C16_16 and N03_3
REMARK 3 A between atoms: C04_4 and C23_23
REMARK 4 A between atoms: C07_7 and C33_33
REMARK 5 A between atoms: C08_8 and C09_9
REMARK 6 A between atoms: C16_16 and C17_17
REMARK 7 A between atoms: C23_23 and O24_24
REMARK 8 A between atoms: C25_25 and O24_24
REMARK 9 A between atoms: C33_33 and O34_34
REMARK 10 A between atoms: C35_35 and O34_34
ROOT
HETATM    1  N01 AH1 A 500       5.374  43.328   3.951  1.00 19.81    -0.295 N
HETATM    2  C02 AH1 A 500       5.898  42.013   4.013  1.00 20.51     0.324 C
HETATM    3  N03 AH1 A 500       6.947  41.705   4.787  1.00 19.11    -0.295 N
HETATM    4  C04 AH1 A 500       7.220  42.337   6.092  1.00 20.96     0.149 C
HETATM    5  C05 AH1 A 500       7.806  43.810   5.912  1.00 18.24     0.207 C
HETATM    6  C06 AH1 A 500       6.758  44.834   5.382  1.00 18.09     0.207 C
HETATM    7  C07 AH1 A 500       6.239  44.549   3.944  1.00 19.29     0.149 C
HETATM    8  O15 AH1 A 500       5.375  41.100   3.316  1.00 17.64    -0.247 OA
HETATM    9  O31 AH1 A 500       8.189  44.260   7.150  1.00 14.56    -0.218 OA
HETATM   10  O32 AH1 A 500       7.382  46.067   5.368  1.00 21.72    -0.218 OA
ENDROOT
BRANCH 4 11
HETATM   11  C23 AH1 A 500       5.930  42.443   6.842  1.00 19.82     0.174 C
BRANCH 11 12
HETATM   12  O24 AH1 A 500       5.857  42.833   8.253  1.00 22.97    -0.329 OA
BRANCH 12 13
HETATM   13  C25 AH1 A 500       7.439  43.040   7.858  1.00 22.46     0.094 A
HETATM   14  C26 AH1 A 500       7.775  44.331   8.371  1.00 26.14     0.024 A
HETATM   15  C27 AH1 A 500       9.046  44.887   8.060  1.00 25.90     0.002 A
HETATM   16  C28 AH1 A 500       9.965  44.148   7.253  1.00 25.42     0.000 A
HETATM   17  C29 AH1 A 500       9.643  42.863   6.758  1.00 25.26     0.002 A
HETATM   18  C30 AH1 A 500       8.381  42.319   7.058  1.00 24.88     0.024 A
ENDBRANCH 12 13
ENDBRANCH 11 12
ENDBRANCH 4 11
BRANCH 3 19
HETATM   19  C16 AH1 A 500       7.594  40.449   4.657  1.00 18.94     0.133 C
BRANCH 19 20
HETATM   20  C17 AH1 A 500       7.363  39.114   5.350  1.00 21.20     0.000 A
HETATM   21  C18 AH1 A 500       8.059  38.769   6.547  1.00 19.23    -0.002 A
HETATM   22  C19 AH1 A 500       7.764  37.550   7.171  1.00 22.81    -0.000 A
HETATM   23  C20 AH1 A 500       6.811  36.666   6.662  1.00 19.48    -0.000 A
HETATM   24  C21 AH1 A 500       6.130  36.975   5.479  1.00 21.62    -0.000 A
HETATM   25  C22 AH1 A 500       6.390  38.201   4.815  1.00 19.56    -0.002 A
ENDBRANCH 19 20
ENDBRANCH 3 19
BRANCH 1 26
HETATM   26  C08 AH1 A 500       4.086  43.533   3.244  1.00 19.69     0.133 C
BRANCH 26 27
HETATM   27  C09 AH1 A 500       2.718  43.885   2.792  1.00 19.77     0.000 A
HETATM   28  C10 AH1 A 500       2.497  45.030   2.037  1.00 19.95    -0.002 A
HETATM   29  C11 AH1 A 500       1.203  45.370   1.636  1.00 22.27    -0.000 A
HETATM   30  C12 AH1 A 500       0.106  44.572   1.995  1.00 18.67    -0.000 A
HETATM   31  C13 AH1 A 500       0.345  43.437   2.744  1.00 19.27    -0.000 A
HETATM   32  C14 AH1 A 500       1.667  43.100   3.140  1.00 17.22    -0.002 A
ENDBRANCH 26 27
ENDBRANCH 1 26
BRANCH 7 33
HETATM   33  C33 AH1 A 500       7.436  44.294   2.974  1.00 19.18     0.174 C
BRANCH 33 34
HETATM   34  O34 AH1 A 500       7.555  44.965   1.662  1.00 22.93    -0.329 OA
BRANCH 34 35
HETATM   35  C35 AH1 A 500       7.191  45.691   0.076  1.00 22.24     0.094 A
HETATM   36  C36 AH1 A 500       6.923  46.999  -0.353  1.00 23.26     0.024 A
HETATM   37  C37 AH1 A 500       6.525  47.267  -1.689  1.00 26.71     0.002 A
HETATM   38  C38 AH1 A 500       6.379  46.219  -2.624  1.00 26.63     0.000 A
HETATM   39  C39 AH1 A 500       6.634  44.895  -2.189  1.00 26.74     0.002 A
HETATM   40  C40 AH1 A 500       7.045  44.648  -0.830  1.00 23.99     0.024 A
ENDBRANCH 34 35
ENDBRANCH 33 34
ENDBRANCH 7 33
TORSDOF 10
