REMARK 10 active torsions:
REMARK status: ('A' for Active; 'I' for Inactive)
REMARK 1 A between atoms: C08_8 and N01_1
REMARK 2 A between atoms: C16_16 and N03_3
REMARK 3 A between atoms: C04_4 and C23_23
REMARK 4 A between atoms: C07_7 and C33_33
REMARK 5 A between atoms: C08_8 and C09_9
REMARK 6 A between atoms: C16_16 and C17_17
REMARK 7 A between atoms: C23_23 and O24_24
REMARK 8 A between atoms: C25_25 and O24_24
REMARK 9 A between atoms: C33_33 and O34_34
REMARK 10 A between atoms: C35_35 and O34_34
ROOT
HETATM    1  N01 AH1 A 500      16.120  28.738   2.732  1.00 19.81    -0.295 N
HETATM    2  C02 AH1 A 500      16.644  27.423   2.794  1.00 20.51     0.324 C
HETATM    3  N03 AH1 A 500      17.618  27.008   1.972  1.00 19.11    -0.295 N
HETATM    4  C04 AH1 A 500      18.701  27.878   1.471  1.00 20.96     0.149 C
HETATM    5  C05 AH1 A 500      18.173  28.862   0.332  1.00 18.24     0.207 C
HETATM    6  C06 AH1 A 500      17.221  29.973   0.864  1.00 18.09     0.207 C
HETATM    7  C07 AH1 A 500      15.873  29.457   1.442  1.00 19.29     0.149 C
HETATM    8  O15 AH1 A 500      16.186  26.607   3.642  1.00 17.64    -0.247 OA
HETATM    9  O31 AH1 A 500      19.262  29.511  -0.193  1.00 14.56    -0.218 OA
HETATM   10  O32 AH1 A 500      16.928  30.792  -0.210  1.00 21.72    -0.218 OA
ENDROOT
BRANCH 4 11
HETATM   11  C23 AH1 A 500      19.194  28.714   2.610  1.00 19.82     0.174 C
BRANCH 11 12
HETATM   12  O24 AH1 A 500      19.661  28.221   3.908  1.00 22.97    -0.329 OA
BRANCH 12 13
HETATM   13  C25 AH1 A 500      20.184  27.001   3.875  1.00 22.46     0.094 A
HETATM   14  C26 AH1 A 500      19.815  26.014   4.842  1.00 26.14     0.024 A
HETATM   15  C27 AH1 A 500      20.448  24.744   4.802  1.00 25.90     0.002 A
HETATM   16  C28 AH1 A 500      21.430  24.464   3.801  1.00 25.42     0.000 A
HETATM   17  C29 AH1 A 500      21.784  25.432   2.831  1.00 25.26     0.002 A
HETATM   18  C30 AH1 A 500      21.164  26.696   2.875  1.00 24.88     0.024 A
ENDBRANCH 12 13
ENDBRANCH 11 12
ENDBRANCH 4 11
BRANCH 3 19
HETATM   19  C16 AH1 A 500      17.961  25.631   1.894  1.00 18.94     0.133 C
BRANCH 19 20
HETATM   20  C17 AH1 A 500      18.515  24.980   0.639  1.00 21.20     0.000 A
HETATM   21  C18 AH1 A 500      19.641  24.108   0.691  1.00 19.23    -0.002 A
HETATM   22  C19 AH1 A 500      20.073  23.488  -0.489  1.00 22.81    -0.000 A
HETATM   23  C20 AH1 A 500      19.434  23.699  -1.713  1.00 19.48    -0.000 A
HETATM   24  C21 AH1 A 500      18.337  24.563  -1.790  1.00 21.62    -0.000 A
HETATM   25  C22 AH1 A 500      17.862  25.207  -0.621  1.00 19.56    -0.002 A
ENDBRANCH 19 20
ENDBRANCH 3 19
BRANCH 1 26
HETATM   26  C08 AH1 A 500      15.213  29.178   3.817  1.00 19.69     0.133 C
BRANCH 26 27
HETATM   27  C09 AH1 A 500      15.377  30.534   4.397  1.00 19.77     0.000 A
HETATM   28  C10 AH1 A 500      14.429  31.522   4.159  1.00 19.95    -0.002 A
HETATM   29  C11 AH1 A 500      14.601  32.805   4.681  1.00 22.27    -0.000 A
HETATM   30  C12 AH1 A 500      15.735  33.123   5.447  1.00 18.67    -0.000 A
HETATM   31  C13 AH1 A 500      16.664  32.128   5.674  1.00 19.27    -0.000 A
HETATM   32  C14 AH1 A 500      16.473  30.826   5.142  1.00 17.22    -0.002 A
ENDBRANCH 26 27
ENDBRANCH 1 26
BRANCH 7 33
HETATM   33  C33 AH1 A 500      15.203  28.454   0.448  1.00 19.18     0.174 C
BRANCH 33 34
HETATM   34  O34 AH1 A 500      14.117  27.770   1.181  1.00 22.93    -0.329 OA
BRANCH 34 35
HETATM   35  C35 AH1 A 500      12.872  28.309   1.394  1.00 22.24     0.094 A
HETATM   36  C36 AH1 A 500      12.330  29.232   0.490  1.00 23.26     0.024 A
HETATM   37  C37 AH1 A 500      11.039  29.789   0.691  1.00 26.71     0.002 A
HETATM   38  C38 AH1 A 500      10.266  29.431   1.819  1.00 26.63     0.000 A
HETATM   39  C39 AH1 A 500      10.819  28.510   2.741  1.00 26.74     0.002 A
HETATM   40  C40 AH1 A 500      12.127  27.953   2.510  1.00 23.99     0.024 A
ENDBRANCH 34 35
ENDBRANCH 33 34
ENDBRANCH 7 33
TORSDOF 10
