MODEL 1
REMARK VINA RESULT:     -11.5      0.000      0.000
REMARK 10 active torsions:
REMARK status: ('A' for Active; 'I' for Inactive)
REMARK 1 A between atoms: C08_8 and N01_1
REMARK 2 A between atoms: C16_16 and N03_3
REMARK 3 A between atoms: C04_4 and C23_23
REMARK 4 A between atoms: C07_7 and C33_33
REMARK 5 A between atoms: C08_8 and C09_9
REMARK 6 A between atoms: C16_16 and C17_17
REMARK 7 A between atoms: C23_23 and O24_24
REMARK 8 A between atoms: C25_25 and O24_24
REMARK 9 A between atoms: C33_33 and O34_34
REMARK 10 A between atoms: C35_35 and O34_34
ROOT
HETATM    1  N01 AH1 A 500      11.587  22.975   5.817  1.00 19.81    -0.295 N
HETATM    2  C02 AH1 A 500      12.101  21.661   5.938  1.00 20.51     0.324 C
HETATM    3  N03 AH1 A 500      13.397  21.384   5.734  1.00 19.11    -0.295 N
HETATM    4  C04 AH1 A 500      14.499  22.309   6.068  1.00 20.96     0.149 C
HETATM    5  C05 AH1 A 500      14.598  23.498   5.008  1.00 18.24     0.207 C
HETATM    6  C06 AH1 A 500      13.419  24.510   5.101  1.00 18.09     0.207 C
HETATM    7  C07 AH1 A 500      12.024  23.926   4.745  1.00 19.29     0.149 C
HETATM    8  O15 AH1 A 500      11.327  20.711   6.243  1.00 17.64    -0.247 OA
HETATM    9  O31 AH1 A 500      15.736  24.210   5.289  1.00 14.56    -0.218 OA
HETATM   10  O32 AH1 A 500      13.692  25.520   4.198  1.00 21.72    -0.218 OA
ENDROOT
BRANCH 4 11
HETATM   11  C23 AH1 A 500      14.218  22.909   7.409  1.00 19.82     0.174 C
BRANCH 11 12
HETATM   12  O24 AH1 A 500      15.210  22.888   8.488  1.00 22.97    -0.329 OA
BRANCH 12 13
HETATM   13  C25 AH1 A 500      16.004  21.868   8.671  1.00 22.46     0.094 A
HETATM   14  C26 AH1 A 500      15.476  20.668   9.242  1.00 26.14     0.024 A
HETATM   15  C27 AH1 A 500      16.358  19.588   9.510  1.00 25.90     0.002 A
HETATM   16  C28 AH1 A 500      17.750  19.709   9.201  1.00 25.42     0.000 A
HETATM   17  C29 AH1 A 500      18.272  20.888   8.618  1.00 25.26     0.002 A
HETATM   18  C30 AH1 A 500      17.400  21.963   8.361  1.00 24.88     0.024 A
ENDBRANCH 12 13
ENDBRANCH 11 12
ENDBRANCH 4 11
BRANCH 3 19
HETATM   19  C16 AH1 A 500      13.843  20.039   5.633  1.00 18.94     0.133 C
BRANCH 19 20
HETATM   20  C17 AH1 A 500      14.454  19.640   4.300  1.00 21.20     0.000 A
HETATM   21  C18 AH1 A 500      14.130  20.334   3.098  1.00 19.23    -0.002 A
HETATM   22  C19 AH1 A 500      14.768  19.960   1.908  1.00 22.81    -0.000 A
HETATM   23  C20 AH1 A 500      15.711  18.931   1.865  1.00 19.48    -0.000 A
HETATM   24  C21 AH1 A 500      16.034  18.227   3.030  1.00 21.62    -0.000 A
HETATM   25  C22 AH1 A 500      15.417  18.573   4.257  1.00 19.56    -0.002 A
ENDBRANCH 19 20
ENDBRANCH 3 19
BRANCH 1 26
HETATM   26  C08 AH1 A 500      10.202  23.225   6.274  1.00 19.69     0.133 C
BRANCH 26 27
HETATM   27  C09 AH1 A 500      10.209  24.371   7.218  1.00 19.77     0.000 A
HETATM   28  C10 AH1 A 500      11.343  24.654   7.972  1.00 19.95    -0.002 A
HETATM   29  C11 AH1 A 500      11.337  25.715   8.881  1.00 22.27    -0.000 A
HETATM   30  C12 AH1 A 500      10.190  26.506   9.055  1.00 18.67    -0.000 A
HETATM   31  C13 AH1 A 500       9.076  26.210   8.296  1.00 19.27    -0.000 A
HETATM   32  C14 AH1 A 500       9.098  25.133   7.371  1.00 17.22    -0.002 A
ENDBRANCH 26 27
ENDBRANCH 1 26
BRANCH 7 33
HETATM   33  C33 AH1 A 500      12.093  23.138   3.396  1.00 19.18     0.174 C
BRANCH 33 34
HETATM   34  O34 AH1 A 500      11.492  24.145   2.496  1.00 22.93    -0.329 OA
BRANCH 34 35
HETATM   35  C35 AH1 A 500       9.846  24.510   2.632  1.00 22.24     0.094 A
HETATM   36  C36 AH1 A 500       8.869  23.512   2.517  1.00 23.26     0.024 A
HETATM   37  C37 AH1 A 500       7.571  23.686   3.066  1.00 26.71     0.002 A
HETATM   38  C38 AH1 A 500       7.226  24.879   3.739  1.00 26.63     0.000 A
HETATM   39  C39 AH1 A 500       8.207  25.895   3.843  1.00 26.74     0.002 A
HETATM   40  C40 AH1 A 500       9.520  25.691   3.286  1.00 23.99     0.024 A
ENDBRANCH 34 35
ENDBRANCH 33 34
ENDBRANCH 7 33
TORSDOF 10
ENDMDL
MODEL 2
REMARK VINA RESULT:     -11.4      0.714      8.521
REMARK 10 active torsions:
REMARK status: ('A' for Active; 'I' for Inactive)
REMARK 1 A between atoms: C08_8 and N01_1
REMARK 2 A between atoms: C16_16 and N03_3
REMARK 3 A between atoms: C04_4 and C23_23
REMARK 4 A between atoms: C07_7 and C33_33
REMARK 5 A between atoms: C08_8 and C09_9
REMARK 6 A between atoms: C16_16 and C17_17
REMARK 7 A between atoms: C23_23 and O24_24
REMARK 8 A between atoms: C25_25 and O24_24
REMARK 9 A between atoms: C33_33 and O34_34
REMARK 10 A between atoms: C35_35 and O34_34
ROOT
HETATM    1  N01 AH1 A 500      13.430  21.356   5.566  1.00 19.81    -0.295 N
HETATM    2  C02 AH1 A 500      12.092  21.640   5.938  1.00 20.51     0.324 C
HETATM    3  N03 AH1 A 500      11.575  22.873   5.839  1.00 19.11    -0.295 N
HETATM    4  C04 AH1 A 500      11.941  23.838   4.782  1.00 20.96     0.149 C
HETATM    5  C05 AH1 A 500      13.378  24.475   5.052  1.00 18.24     0.207 C
HETATM    6  C06 AH1 A 500      14.550  23.469   4.853  1.00 18.09     0.207 C
HETATM    7  C07 AH1 A 500      14.571  22.281   5.856  1.00 19.29     0.149 C
HETATM    8  O15 AH1 A 500      11.356  20.715   6.381  1.00 17.64    -0.247 OA
HETATM    9  O31 AH1 A 500      13.570  25.472   4.129  1.00 14.56    -0.218 OA
HETATM   10  O32 AH1 A 500      15.720  24.183   5.027  1.00 21.72    -0.218 OA
ENDROOT
BRANCH 4 11
HETATM   11  C23 AH1 A 500      11.998  23.106   3.479  1.00 19.82     0.174 C
BRANCH 11 12
HETATM   12  O24 AH1 A 500      10.792  22.824   2.697  1.00 22.97    -0.329 OA
BRANCH 12 13
HETATM   13  C25 AH1 A 500       9.823  23.693   2.592  1.00 22.46     0.094 A
HETATM   14  C26 AH1 A 500       8.502  23.316   2.991  1.00 26.14     0.024 A
HETATM   15  C27 AH1 A 500       7.439  24.238   2.805  1.00 25.90     0.002 A
HETATM   16  C28 AH1 A 500       7.699  25.524   2.234  1.00 25.42     0.000 A
HETATM   17  C29 AH1 A 500       9.007  25.907   1.855  1.00 25.26     0.002 A
HETATM   18  C30 AH1 A 500      10.062  24.990   2.031  1.00 24.88     0.024 A
ENDBRANCH 12 13
ENDBRANCH 11 12
ENDBRANCH 4 11
BRANCH 3 19
HETATM   19  C16 AH1 A 500      10.320  23.182   6.430  1.00 18.94     0.133 C
BRANCH 19 20
HETATM   20  C17 AH1 A 500      10.276  24.442   7.277  1.00 21.20     0.000 A
HETATM   21  C18 AH1 A 500       9.147  25.312   7.253  1.00 19.23    -0.002 A
HETATM   22  C19 AH1 A 500       9.136  26.429   8.099  1.00 22.81    -0.000 A
HETATM   23  C20 AH1 A 500      10.195  26.715   8.963  1.00 19.48    -0.000 A
HETATM   24  C21 AH1 A 500      11.320  25.883   8.991  1.00 21.62    -0.000 A
HETATM   25  C22 AH1 A 500      11.373  24.740   8.158  1.00 19.56    -0.002 A
ENDBRANCH 19 20
ENDBRANCH 3 19
BRANCH 1 26
HETATM   26  C08 AH1 A 500      13.846  19.937   5.497  1.00 19.69     0.133 C
BRANCH 26 27
HETATM   27  C09 AH1 A 500      14.551  19.708   4.211  1.00 19.77     0.000 A
HETATM   28  C10 AH1 A 500      14.090  20.300   3.040  1.00 19.95    -0.002 A
HETATM   29  C11 AH1 A 500      14.738  20.059   1.826  1.00 22.27    -0.000 A
HETATM   30  C12 AH1 A 500      15.857  19.212   1.765  1.00 18.67    -0.000 A
HETATM   31  C13 AH1 A 500      16.300  18.636   2.939  1.00 19.27    -0.000 A
HETATM   32  C14 AH1 A 500      15.636  18.895   4.167  1.00 17.22    -0.002 A
ENDBRANCH 26 27
ENDBRANCH 1 26
BRANCH 7 33
HETATM   33  C33 AH1 A 500      14.412  22.805   7.321  1.00 19.18     0.174 C
BRANCH 33 34
HETATM   34  O34 AH1 A 500      15.790  22.590   7.807  1.00 22.93    -0.329 OA
BRANCH 34 35
HETATM   35  C35 AH1 A 500      16.330  21.016   8.117  1.00 22.24     0.094 A
HETATM   36  C36 AH1 A 500      17.304  20.412   7.313  1.00 23.26     0.024 A
HETATM   37  C37 AH1 A 500      18.087  19.328   7.793  1.00 26.71     0.002 A
HETATM   38  C38 AH1 A 500      17.898  18.824   9.099  1.00 26.63     0.000 A
HETATM   39  C39 AH1 A 500      16.902  19.425   9.908  1.00 26.74     0.002 A
HETATM   40  C40 AH1 A 500      16.128  20.528   9.401  1.00 23.99     0.024 A
ENDBRANCH 34 35
ENDBRANCH 33 34
ENDBRANCH 7 33
TORSDOF 10
ENDMDL
MODEL 3
REMARK VINA RESULT:     -10.8      1.561      5.510
REMARK 10 active torsions:
REMARK status: ('A' for Active; 'I' for Inactive)
REMARK 1 A between atoms: C08_8 and N01_1
REMARK 2 A between atoms: C16_16 and N03_3
REMARK 3 A between atoms: C04_4 and C23_23
REMARK 4 A between atoms: C07_7 and C33_33
REMARK 5 A between atoms: C08_8 and C09_9
REMARK 6 A between atoms: C16_16 and C17_17
REMARK 7 A between atoms: C23_23 and O24_24
REMARK 8 A between atoms: C25_25 and O24_24
REMARK 9 A between atoms: C33_33 and O34_34
REMARK 10 A between atoms: C35_35 and O34_34
ROOT
HETATM    1  N01 AH1 A 500      13.294  22.358   6.417  1.00 19.81    -0.295 N
HETATM    2  C02 AH1 A 500      12.077  21.971   5.804  1.00 20.51     0.324 C
HETATM    3  N03 AH1 A 500      11.957  21.854   4.473  1.00 19.11    -0.295 N
HETATM    4  C04 AH1 A 500      13.048  21.403   3.586  1.00 20.96     0.149 C
HETATM    5  C05 AH1 A 500      14.137  22.550   3.376  1.00 18.24     0.207 C
HETATM    6  C06 AH1 A 500      14.988  22.836   4.648  1.00 18.09     0.207 C
HETATM    7  C07 AH1 A 500      14.192  23.414   5.851  1.00 19.29     0.149 C
HETATM    8  O15 AH1 A 500      11.065  21.731   6.520  1.00 17.64    -0.247 OA
HETATM    9  O31 AH1 A 500      15.017  22.115   2.417  1.00 14.56    -0.218 OA
HETATM   10  O32 AH1 A 500      15.938  23.772   4.286  1.00 21.72    -0.218 OA
ENDROOT
BRANCH 4 11
HETATM   11  C23 AH1 A 500      13.725  20.236   4.231  1.00 19.82     0.174 C
BRANCH 11 12
HETATM   12  O24 AH1 A 500      14.391  19.195   3.443  1.00 22.97    -0.329 OA
BRANCH 12 13
HETATM   13  C25 AH1 A 500      15.663  18.934   3.587  1.00 22.46     0.094 A
HETATM   14  C26 AH1 A 500      16.299  18.042   2.667  1.00 26.14     0.024 A
HETATM   15  C27 AH1 A 500      17.662  17.701   2.872  1.00 25.90     0.002 A
HETATM   16  C28 AH1 A 500      18.378  18.255   3.980  1.00 25.42     0.000 A
HETATM   17  C29 AH1 A 500      17.757  19.152   4.881  1.00 25.26     0.002 A
HETATM   18  C30 AH1 A 500      16.402  19.483   4.684  1.00 24.88     0.024 A
ENDBRANCH 12 13
ENDBRANCH 11 12
ENDBRANCH 4 11
BRANCH 3 19
HETATM   19  C16 AH1 A 500      10.680  21.696   3.872  1.00 18.94     0.133 C
BRANCH 19 20
HETATM   20  C17 AH1 A 500      10.048  22.958   3.311  1.00 21.20     0.000 A
HETATM   21  C18 AH1 A 500      10.843  23.997   2.746  1.00 19.23    -0.002 A
HETATM   22  C19 AH1 A 500      10.202  25.112   2.189  1.00 22.81    -0.000 A
HETATM   23  C20 AH1 A 500       8.811  25.235   2.172  1.00 19.48    -0.000 A
HETATM   24  C21 AH1 A 500       8.012  24.234   2.735  1.00 21.62    -0.000 A
HETATM   25  C22 AH1 A 500       8.616  23.087   3.303  1.00 19.56    -0.002 A
ENDBRANCH 19 20
ENDBRANCH 3 19
BRANCH 1 26
HETATM   26  C08 AH1 A 500      13.398  22.245   7.889  1.00 19.69     0.133 C
BRANCH 26 27
HETATM   27  C09 AH1 A 500      14.782  21.838   8.241  1.00 19.77     0.000 A
HETATM   28  C10 AH1 A 500      15.797  22.786   8.314  1.00 19.95    -0.002 A
HETATM   29  C11 AH1 A 500      17.104  22.396   8.616  1.00 22.27    -0.000 A
HETATM   30  C12 AH1 A 500      17.417  21.045   8.842  1.00 18.67    -0.000 A
HETATM   31  C13 AH1 A 500      16.395  20.121   8.766  1.00 19.27    -0.000 A
HETATM   32  C14 AH1 A 500      15.070  20.532   8.465  1.00 17.22    -0.002 A
ENDBRANCH 26 27
ENDBRANCH 1 26
BRANCH 7 33
HETATM   33  C33 AH1 A 500      13.301  24.613   5.387  1.00 19.18     0.174 C
BRANCH 33 34
HETATM   34  O34 AH1 A 500      13.092  25.278   6.690  1.00 22.93    -0.329 OA
BRANCH 34 35
HETATM   35  C35 AH1 A 500      11.517  25.566   7.238  1.00 22.24     0.094 A
HETATM   36  C36 AH1 A 500      10.404  25.220   6.462  1.00 23.26     0.024 A
HETATM   37  C37 AH1 A 500       9.127  25.020   7.052  1.00 26.71     0.002 A
HETATM   38  C38 AH1 A 500       8.944  25.173   8.445  1.00 26.63     0.000 A
HETATM   39  C39 AH1 A 500      10.066  25.538   9.229  1.00 26.74     0.002 A
HETATM   40  C40 AH1 A 500      11.352  25.726   8.607  1.00 23.99     0.024 A
ENDBRANCH 34 35
ENDBRANCH 33 34
ENDBRANCH 7 33
TORSDOF 10
ENDMDL
MODEL 4
REMARK VINA RESULT:     -10.6      1.517      6.543
REMARK 10 active torsions:
REMARK status: ('A' for Active; 'I' for Inactive)
REMARK 1 A between atoms: C08_8 and N01_1
REMARK 2 A between atoms: C16_16 and N03_3
REMARK 3 A between atoms: C04_4 and C23_23
REMARK 4 A between atoms: C07_7 and C33_33
REMARK 5 A between atoms: C08_8 and C09_9
REMARK 6 A between atoms: C16_16 and C17_17
REMARK 7 A between atoms: C23_23 and O24_24
REMARK 8 A between atoms: C25_25 and O24_24
REMARK 9 A between atoms: C33_33 and O34_34
REMARK 10 A between atoms: C35_35 and O34_34
ROOT
HETATM    1  N01 AH1 A 500      12.014  21.955   4.427  1.00 19.81    -0.295 N
HETATM    2  C02 AH1 A 500      12.114  22.050   5.837  1.00 20.51     0.324 C
HETATM    3  N03 AH1 A 500      13.228  22.485   6.443  1.00 19.11    -0.295 N
HETATM    4  C04 AH1 A 500      14.122  23.516   5.878  1.00 20.96     0.149 C
HETATM    5  C05 AH1 A 500      15.011  22.926   4.692  1.00 18.24     0.207 C
HETATM    6  C06 AH1 A 500      14.194  22.609   3.405  1.00 18.09     0.207 C
HETATM    7  C07 AH1 A 500      13.139  21.479   3.561  1.00 19.29     0.149 C
HETATM    8  O15 AH1 A 500      11.133  21.714   6.558  1.00 17.64    -0.247 OA
HETATM    9  O31 AH1 A 500      15.923  23.888   4.339  1.00 14.56    -0.218 OA
HETATM   10  O32 AH1 A 500      15.105  22.202   2.449  1.00 21.72    -0.218 OA
ENDROOT
BRANCH 4 11
HETATM   11  C23 AH1 A 500      13.276  24.615   5.319  1.00 19.82     0.174 C
BRANCH 11 12
HETATM   12  O24 AH1 A 500      12.749  25.692   6.162  1.00 22.97    -0.329 OA
BRANCH 12 13
HETATM   13  C25 AH1 A 500      11.670  25.535   6.881  1.00 22.46     0.094 A
HETATM   14  C26 AH1 A 500      10.426  25.278   6.223  1.00 26.14     0.024 A
HETATM   15  C27 AH1 A 500       9.244  25.184   7.003  1.00 25.90     0.002 A
HETATM   16  C28 AH1 A 500       9.310  25.337   8.424  1.00 25.42     0.000 A
HETATM   17  C29 AH1 A 500      10.542  25.573   9.080  1.00 25.26     0.002 A
HETATM   18  C30 AH1 A 500      11.715  25.676   8.306  1.00 24.88     0.024 A
ENDBRANCH 12 13
ENDBRANCH 11 12
ENDBRANCH 4 11
BRANCH 3 19
HETATM   19  C16 AH1 A 500      13.388  22.352   7.848  1.00 18.94     0.133 C
BRANCH 19 20
HETATM   20  C17 AH1 A 500      14.750  21.875   8.321  1.00 21.20     0.000 A
HETATM   21  C18 AH1 A 500      14.939  20.558   8.832  1.00 19.23    -0.002 A
HETATM   22  C19 AH1 A 500      16.229  20.153   9.198  1.00 22.81    -0.000 A
HETATM   23  C20 AH1 A 500      17.334  20.999   9.076  1.00 19.48    -0.000 A
HETATM   24  C21 AH1 A 500      17.169  22.301   8.591  1.00 21.62    -0.000 A
HETATM   25  C22 AH1 A 500      15.885  22.752   8.204  1.00 19.56    -0.002 A
ENDBRANCH 19 20
ENDBRANCH 3 19
BRANCH 1 26
HETATM   26  C08 AH1 A 500      10.684  21.680   3.841  1.00 19.69     0.133 C
BRANCH 26 27
HETATM   27  C09 AH1 A 500      10.109  22.954   3.341  1.00 19.77     0.000 A
HETATM   28  C10 AH1 A 500       8.765  23.246   3.542  1.00 19.95    -0.002 A
HETATM   29  C11 AH1 A 500       8.220  24.433   3.045  1.00 22.27    -0.000 A
HETATM   30  C12 AH1 A 500       9.014  25.344   2.329  1.00 18.67    -0.000 A
HETATM   31  C13 AH1 A 500      10.346  25.036   2.143  1.00 19.27    -0.000 A
HETATM   32  C14 AH1 A 500      10.889  23.830   2.659  1.00 17.22    -0.002 A
ENDBRANCH 26 27
ENDBRANCH 1 26
BRANCH 7 33
HETATM   33  C33 AH1 A 500      13.782  20.226   4.243  1.00 19.18     0.174 C
BRANCH 33 34
HETATM   34  O34 AH1 A 500      14.075  19.419   3.041  1.00 22.93    -0.329 OA
BRANCH 34 35
HETATM   35  C35 AH1 A 500      15.487  18.488   2.984  1.00 22.24     0.094 A
HETATM   36  C36 AH1 A 500      16.514  18.782   2.079  1.00 23.26     0.024 A
HETATM   37  C37 AH1 A 500      17.846  18.342   2.307  1.00 26.71     0.002 A
HETATM   38  C38 AH1 A 500      18.168  17.584   3.456  1.00 26.63     0.000 A
HETATM   39  C39 AH1 A 500      17.126  17.273   4.364  1.00 26.74     0.002 A
HETATM   40  C40 AH1 A 500      15.787  17.739   4.114  1.00 23.99     0.024 A
ENDBRANCH 34 35
ENDBRANCH 33 34
ENDBRANCH 7 33
TORSDOF 10
ENDMDL
MODEL 5
REMARK VINA RESULT:     -10.4      1.324      6.758
REMARK 10 active torsions:
REMARK status: ('A' for Active; 'I' for Inactive)
REMARK 1 A between atoms: C08_8 and N01_1
REMARK 2 A between atoms: C16_16 and N03_3
REMARK 3 A between atoms: C04_4 and C23_23
REMARK 4 A between atoms: C07_7 and C33_33
REMARK 5 A between atoms: C08_8 and C09_9
REMARK 6 A between atoms: C16_16 and C17_17
REMARK 7 A between atoms: C23_23 and O24_24
REMARK 8 A between atoms: C25_25 and O24_24
REMARK 9 A between atoms: C33_33 and O34_34
REMARK 10 A between atoms: C35_35 and O34_34
ROOT
HETATM    1  N01 AH1 A 500      13.129  23.882   6.129  1.00 19.81    -0.295 N
HETATM    2  C02 AH1 A 500      14.050  23.597   5.091  1.00 20.51     0.324 C
HETATM    3  N03 AH1 A 500      13.743  22.781   4.073  1.00 19.11    -0.295 N
HETATM    4  C04 AH1 A 500      12.390  22.666   3.490  1.00 20.96     0.149 C
HETATM    5  C05 AH1 A 500      11.421  21.827   4.440  1.00 18.24     0.207 C
HETATM    6  C06 AH1 A 500      11.037  22.576   5.750  1.00 18.09     0.207 C
HETATM    7  C07 AH1 A 500      12.221  22.848   6.719  1.00 19.29     0.149 C
HETATM    8  O15 AH1 A 500      15.201  24.117   5.116  1.00 17.64    -0.247 OA
HETATM    9  O31 AH1 A 500      10.247  21.624   3.758  1.00 14.56    -0.218 OA
HETATM   10  O32 AH1 A 500      10.129  21.773   6.414  1.00 21.72    -0.218 OA
ENDROOT
BRANCH 4 11
HETATM   11  C23 AH1 A 500      11.822  24.041   3.349  1.00 19.82     0.174 C
BRANCH 11 12
HETATM   12  O24 AH1 A 500      10.835  24.368   2.315  1.00 22.97    -0.329 OA
BRANCH 12 13
HETATM   13  C25 AH1 A 500       9.674  24.886   2.614  1.00 22.46     0.094 A
HETATM   14  C26 AH1 A 500       8.855  25.411   1.565  1.00 26.14     0.024 A
HETATM   15  C27 AH1 A 500       7.628  26.041   1.902  1.00 25.90     0.002 A
HETATM   16  C28 AH1 A 500       7.225  26.135   3.271  1.00 25.42     0.000 A
HETATM   17  C29 AH1 A 500       8.024  25.600   4.310  1.00 25.26     0.002 A
HETATM   18  C30 AH1 A 500       9.246  24.983   3.978  1.00 24.88     0.024 A
ENDBRANCH 12 13
ENDBRANCH 11 12
ENDBRANCH 4 11
BRANCH 3 19
HETATM   19  C16 AH1 A 500      14.749  22.329   3.178  1.00 18.94     0.133 C
BRANCH 19 20
HETATM   20  C17 AH1 A 500      15.133  20.864   3.294  1.00 21.20     0.000 A
HETATM   21  C18 AH1 A 500      14.753  19.916   2.299  1.00 19.23    -0.002 A
HETATM   22  C19 AH1 A 500      15.185  18.590   2.429  1.00 22.81    -0.000 A
HETATM   23  C20 AH1 A 500      15.976  18.169   3.500  1.00 19.48    -0.000 A
HETATM   24  C21 AH1 A 500      16.348  19.080   4.496  1.00 21.62    -0.000 A
HETATM   25  C22 AH1 A 500      15.939  20.432   4.404  1.00 19.56    -0.002 A
ENDBRANCH 19 20
ENDBRANCH 3 19
BRANCH 1 26
HETATM   26  C08 AH1 A 500      13.470  24.958   7.086  1.00 19.69     0.133 C
BRANCH 26 27
HETATM   27  C09 AH1 A 500      12.212  25.535   7.625  1.00 19.77     0.000 A
HETATM   28  C10 AH1 A 500      11.923  25.446   8.981  1.00 19.95    -0.002 A
HETATM   29  C11 AH1 A 500      10.725  25.963   9.482  1.00 22.27    -0.000 A
HETATM   30  C12 AH1 A 500       9.792  26.572   8.625  1.00 18.67    -0.000 A
HETATM   31  C13 AH1 A 500      10.100  26.652   7.282  1.00 19.27    -0.000 A
HETATM   32  C14 AH1 A 500      11.324  26.128   6.789  1.00 17.22    -0.002 A
ENDBRANCH 26 27
ENDBRANCH 1 26
BRANCH 7 33
HETATM   33  C33 AH1 A 500      13.051  21.541   6.942  1.00 19.18     0.174 C
BRANCH 33 34
HETATM   34  O34 AH1 A 500      13.538  21.794   8.314  1.00 22.93    -0.329 OA
BRANCH 34 35
HETATM   35  C35 AH1 A 500      15.169  21.536   8.682  1.00 22.24     0.094 A
HETATM   36  C36 AH1 A 500      15.677  20.243   8.861  1.00 23.26     0.024 A
HETATM   37  C37 AH1 A 500      17.063  19.969   8.712  1.00 26.71     0.002 A
HETATM   38  C38 AH1 A 500      17.972  21.000   8.385  1.00 26.63     0.000 A
HETATM   39  C39 AH1 A 500      17.461  22.311   8.219  1.00 26.74     0.002 A
HETATM   40  C40 AH1 A 500      16.051  22.561   8.367  1.00 23.99     0.024 A
ENDBRANCH 34 35
ENDBRANCH 33 34
ENDBRANCH 7 33
TORSDOF 10
ENDMDL
MODEL 6
REMARK VINA RESULT:     -10.2      1.614      5.374
REMARK 10 active torsions:
REMARK status: ('A' for Active; 'I' for Inactive)
REMARK 1 A between atoms: C08_8 and N01_1
REMARK 2 A between atoms: C16_16 and N03_3
REMARK 3 A between atoms: C04_4 and C23_23
REMARK 4 A between atoms: C07_7 and C33_33
REMARK 5 A between atoms: C08_8 and C09_9
REMARK 6 A between atoms: C16_16 and C17_17
REMARK 7 A between atoms: C23_23 and O24_24
REMARK 8 A between atoms: C25_25 and O24_24
REMARK 9 A between atoms: C33_33 and O34_34
REMARK 10 A between atoms: C35_35 and O34_34
ROOT
HETATM    1  N01 AH1 A 500      13.175  24.068   5.063  1.00 19.81    -0.295 N
HETATM    2  C02 AH1 A 500      14.522  23.637   5.151  1.00 20.51     0.324 C
HETATM    3  N03 AH1 A 500      14.847  22.396   5.541  1.00 19.11    -0.295 N
HETATM    4  C04 AH1 A 500      14.032  21.200   5.243  1.00 20.96     0.149 C
HETATM    5  C05 AH1 A 500      12.734  21.140   6.169  1.00 18.24     0.207 C
HETATM    6  C06 AH1 A 500      11.674  22.225   5.821  1.00 18.09     0.207 C
HETATM    7  C07 AH1 A 500      12.131  23.690   6.067  1.00 19.29     0.149 C
HETATM    8  O15 AH1 A 500      15.456  24.437   4.861  1.00 17.64    -0.247 OA
HETATM    9  O31 AH1 A 500      12.126  19.929   5.952  1.00 14.56    -0.218 OA
HETATM   10  O32 AH1 A 500      10.581  21.987   6.633  1.00 21.72    -0.218 OA
ENDROOT
BRANCH 4 11
HETATM   11  C23 AH1 A 500      13.581  21.283   3.820  1.00 19.82     0.174 C
BRANCH 11 12
HETATM   12  O24 AH1 A 500      13.740  20.160   2.892  1.00 22.97    -0.329 OA
BRANCH 12 13
HETATM   13  C25 AH1 A 500      14.801  19.397   2.912  1.00 22.46     0.094 A
HETATM   14  C26 AH1 A 500      15.679  19.395   1.783  1.00 26.14     0.024 A
HETATM   15  C27 AH1 A 500      16.788  18.509   1.778  1.00 25.90     0.002 A
HETATM   16  C28 AH1 A 500      17.018  17.644   2.894  1.00 25.42     0.000 A
HETATM   17  C29 AH1 A 500      16.162  17.658   4.021  1.00 25.26     0.002 A
HETATM   18  C30 AH1 A 500      15.055  18.529   4.023  1.00 24.88     0.024 A
ENDBRANCH 12 13
ENDBRANCH 11 12
ENDBRANCH 4 11
BRANCH 3 19
HETATM   19  C16 AH1 A 500      16.193  22.061   5.845  1.00 18.94     0.133 C
BRANCH 19 20
HETATM   20  C17 AH1 A 500      16.416  21.326   7.155  1.00 21.20     0.000 A
HETATM   21  C18 AH1 A 500      15.704  21.683   8.337  1.00 19.23    -0.002 A
HETATM   22  C19 AH1 A 500      15.907  20.932   9.502  1.00 22.81    -0.000 A
HETATM   23  C20 AH1 A 500      16.783  19.846   9.541  1.00 19.48    -0.000 A
HETATM   24  C21 AH1 A 500      17.504  19.487   8.396  1.00 21.62    -0.000 A
HETATM   25  C22 AH1 A 500      17.327  20.214   7.194  1.00 19.56    -0.002 A
ENDBRANCH 19 20
ENDBRANCH 3 19
BRANCH 1 26
HETATM   26  C08 AH1 A 500      12.903  25.370   4.415  1.00 19.69     0.133 C
BRANCH 26 27
HETATM   27  C09 AH1 A 500      11.615  25.280   3.684  1.00 19.77     0.000 A
HETATM   28  C10 AH1 A 500      10.448  25.782   4.250  1.00 19.95    -0.002 A
HETATM   29  C11 AH1 A 500       9.231  25.669   3.572  1.00 22.27    -0.000 A
HETATM   30  C12 AH1 A 500       9.163  25.043   2.317  1.00 18.67    -0.000 A
HETATM   31  C13 AH1 A 500      10.332  24.553   1.772  1.00 19.27    -0.000 A
HETATM   32  C14 AH1 A 500      11.563  24.681   2.468  1.00 17.22    -0.002 A
ENDBRANCH 26 27
ENDBRANCH 1 26
BRANCH 7 33
HETATM   33  C33 AH1 A 500      12.756  23.831   7.494  1.00 19.18     0.174 C
BRANCH 33 34
HETATM   34  O34 AH1 A 500      12.624  25.292   7.673  1.00 22.93    -0.329 OA
BRANCH 34 35
HETATM   35  C35 AH1 A 500      11.177  25.934   8.268  1.00 22.24     0.094 A
HETATM   36  C36 AH1 A 500      10.269  26.584   7.422  1.00 23.26     0.024 A
HETATM   37  C37 AH1 A 500       8.898  26.714   7.773  1.00 26.71     0.002 A
HETATM   38  C38 AH1 A 500       8.413  26.194   8.993  1.00 26.63     0.000 A
HETATM   39  C39 AH1 A 500       9.333  25.549   9.856  1.00 26.74     0.002 A
HETATM   40  C40 AH1 A 500      10.716  25.423   9.474  1.00 23.99     0.024 A
ENDBRANCH 34 35
ENDBRANCH 33 34
ENDBRANCH 7 33
TORSDOF 10
ENDMDL
MODEL 7
REMARK VINA RESULT:      -9.1      0.802      1.345
REMARK 10 active torsions:
REMARK status: ('A' for Active; 'I' for Inactive)
REMARK 1 A between atoms: C08_8 and N01_1
REMARK 2 A between atoms: C16_16 and N03_3
REMARK 3 A between atoms: C04_4 and C23_23
REMARK 4 A between atoms: C07_7 and C33_33
REMARK 5 A between atoms: C08_8 and C09_9
REMARK 6 A between atoms: C16_16 and C17_17
REMARK 7 A between atoms: C23_23 and O24_24
REMARK 8 A between atoms: C25_25 and O24_24
REMARK 9 A between atoms: C33_33 and O34_34
REMARK 10 A between atoms: C35_35 and O34_34
ROOT
HETATM    1  N01 AH1 A 500      11.529  22.717   5.714  1.00 19.81    -0.295 N
HETATM    2  C02 AH1 A 500      12.092  21.426   5.871  1.00 20.51     0.324 C
HETATM    3  N03 AH1 A 500      13.360  21.157   5.528  1.00 19.11    -0.295 N
HETATM    4  C04 AH1 A 500      14.468  22.125   5.648  1.00 20.96     0.149 C
HETATM    5  C05 AH1 A 500      14.402  23.227   4.496  1.00 18.24     0.207 C
HETATM    6  C06 AH1 A 500      13.216  24.222   4.658  1.00 18.09     0.207 C
HETATM    7  C07 AH1 A 500      11.804  23.586   4.527  1.00 19.29     0.149 C
HETATM    8  O15 AH1 A 500      11.387  20.490   6.343  1.00 17.64    -0.247 OA
HETATM    9  O31 AH1 A 500      15.546  23.980   4.575  1.00 14.56    -0.218 OA
HETATM   10  O32 AH1 A 500      13.346  25.162   3.653  1.00 21.72    -0.218 OA
ENDROOT
BRANCH 4 11
HETATM   11  C23 AH1 A 500      14.339  22.825   6.963  1.00 19.82     0.174 C
BRANCH 11 12
HETATM   12  O24 AH1 A 500      14.444  22.105   8.235  1.00 22.97    -0.329 OA
BRANCH 12 13
HETATM   13  C25 AH1 A 500      15.539  21.484   8.585  1.00 22.46     0.094 A
HETATM   14  C26 AH1 A 500      16.804  22.046   8.224  1.00 26.14     0.024 A
HETATM   15  C27 AH1 A 500      17.989  21.330   8.539  1.00 25.90     0.002 A
HETATM   16  C28 AH1 A 500      17.906  20.073   9.216  1.00 25.42     0.000 A
HETATM   17  C29 AH1 A 500      16.657  19.523   9.592  1.00 25.26     0.002 A
HETATM   18  C30 AH1 A 500      15.480  20.228   9.270  1.00 24.88     0.024 A
ENDBRANCH 12 13
ENDBRANCH 11 12
ENDBRANCH 4 11
BRANCH 3 19
HETATM   19  C16 AH1 A 500      13.826  19.816   5.475  1.00 18.94     0.133 C
BRANCH 19 20
HETATM   20  C17 AH1 A 500      14.994  19.555   4.538  1.00 21.20     0.000 A
HETATM   21  C18 AH1 A 500      14.785  19.131   3.193  1.00 19.23    -0.002 A
HETATM   22  C19 AH1 A 500      15.896  18.962   2.357  1.00 22.81    -0.000 A
HETATM   23  C20 AH1 A 500      17.200  19.197   2.800  1.00 19.48    -0.000 A
HETATM   24  C21 AH1 A 500      17.429  19.599   4.121  1.00 21.62    -0.000 A
HETATM   25  C22 AH1 A 500      16.335  19.788   5.000  1.00 19.56    -0.002 A
ENDBRANCH 19 20
ENDBRANCH 3 19
BRANCH 1 26
HETATM   26  C08 AH1 A 500      10.205  22.977   6.322  1.00 19.69     0.133 C
BRANCH 26 27
HETATM   27  C09 AH1 A 500      10.257  24.273   7.043  1.00 19.77     0.000 A
HETATM   28  C10 AH1 A 500      11.173  24.471   8.071  1.00 19.95    -0.002 A
HETATM   29  C11 AH1 A 500      11.200  25.681   8.768  1.00 22.27    -0.000 A
HETATM   30  C12 AH1 A 500      10.301  26.713   8.451  1.00 18.67    -0.000 A
HETATM   31  C13 AH1 A 500       9.402  26.498   7.426  1.00 19.27    -0.000 A
HETATM   32  C14 AH1 A 500       9.390  25.265   6.722  1.00 17.22    -0.002 A
ENDBRANCH 26 27
ENDBRANCH 1 26
BRANCH 7 33
HETATM   33  C33 AH1 A 500      11.727  22.695   3.244  1.00 19.18     0.174 C
BRANCH 33 34
HETATM   34  O34 AH1 A 500      10.882  23.561   2.396  1.00 22.93    -0.329 OA
BRANCH 34 35
HETATM   35  C35 AH1 A 500       9.747  24.586   3.120  1.00 22.24     0.094 A
HETATM   36  C36 AH1 A 500       9.699  25.951   2.809  1.00 23.26     0.024 A
HETATM   37  C37 AH1 A 500       8.521  26.715   3.025  1.00 26.71     0.002 A
HETATM   38  C38 AH1 A 500       7.362  26.116   3.570  1.00 26.63     0.000 A
HETATM   39  C39 AH1 A 500       7.415  24.740   3.899  1.00 26.74     0.002 A
HETATM   40  C40 AH1 A 500       8.619  23.985   3.662  1.00 23.99     0.024 A
ENDBRANCH 34 35
ENDBRANCH 33 34
ENDBRANCH 7 33
TORSDOF 10
ENDMDL
MODEL 8
REMARK VINA RESULT:      -9.0      1.383      5.812
REMARK 10 active torsions:
REMARK status: ('A' for Active; 'I' for Inactive)
REMARK 1 A between atoms: C08_8 and N01_1
REMARK 2 A between atoms: C16_16 and N03_3
REMARK 3 A between atoms: C04_4 and C23_23
REMARK 4 A between atoms: C07_7 and C33_33
REMARK 5 A between atoms: C08_8 and C09_9
REMARK 6 A between atoms: C16_16 and C17_17
REMARK 7 A between atoms: C23_23 and O24_24
REMARK 8 A between atoms: C25_25 and O24_24
REMARK 9 A between atoms: C33_33 and O34_34
REMARK 10 A between atoms: C35_35 and O34_34
ROOT
HETATM    1  N01 AH1 A 500      13.830  22.722   4.557  1.00 19.81    -0.295 N
HETATM    2  C02 AH1 A 500      13.619  24.009   5.110  1.00 20.51     0.324 C
HETATM    3  N03 AH1 A 500      13.428  24.195   6.424  1.00 19.11    -0.295 N
HETATM    4  C04 AH1 A 500      14.069  23.376   7.473  1.00 20.96     0.149 C
HETATM    5  C05 AH1 A 500      13.384  21.940   7.587  1.00 18.24     0.207 C
HETATM    6  C06 AH1 A 500      13.677  21.015   6.370  1.00 18.09     0.207 C
HETATM    7  C07 AH1 A 500      13.089  21.505   5.018  1.00 19.29     0.149 C
HETATM    8  O15 AH1 A 500      13.604  25.021   4.354  1.00 17.64    -0.247 OA
HETATM    9  O31 AH1 A 500      13.919  21.311   8.683  1.00 14.56    -0.218 OA
HETATM   10  O32 AH1 A 500      13.103  19.790   6.656  1.00 21.72    -0.218 OA
ENDROOT
BRANCH 4 11
HETATM   11  C23 AH1 A 500      15.503  23.174   7.098  1.00 19.82     0.174 C
BRANCH 11 12
HETATM   12  O24 AH1 A 500      16.520  22.819   8.093  1.00 22.97    -0.329 OA
BRANCH 12 13
HETATM   13  C25 AH1 A 500      17.076  21.637   8.114  1.00 22.46     0.094 A
HETATM   14  C26 AH1 A 500      17.341  20.970   6.877  1.00 26.14     0.024 A
HETATM   15  C27 AH1 A 500      17.875  19.654   6.907  1.00 25.90     0.002 A
HETATM   16  C28 AH1 A 500      18.148  19.022   8.160  1.00 25.42     0.000 A
HETATM   17  C29 AH1 A 500      17.904  19.687   9.386  1.00 25.26     0.002 A
HETATM   18  C30 AH1 A 500      17.365  20.988   9.357  1.00 24.88     0.024 A
ENDBRANCH 12 13
ENDBRANCH 11 12
ENDBRANCH 4 11
BRANCH 3 19
HETATM   19  C16 AH1 A 500      12.990  25.451   6.922  1.00 18.94     0.133 C
BRANCH 19 20
HETATM   20  C17 AH1 A 500      11.567  25.496   7.453  1.00 21.20     0.000 A
HETATM   21  C18 AH1 A 500      10.448  25.288   6.595  1.00 19.23    -0.002 A
HETATM   22  C19 AH1 A 500       9.162  25.282   7.150  1.00 22.81    -0.000 A
HETATM   23  C20 AH1 A 500       8.944  25.474   8.516  1.00 19.48    -0.000 A
HETATM   24  C21 AH1 A 500      10.026  25.696   9.375  1.00 21.62    -0.000 A
HETATM   25  C22 AH1 A 500      11.345  25.704   8.859  1.00 19.56    -0.002 A
ENDBRANCH 19 20
ENDBRANCH 3 19
BRANCH 1 26
HETATM   26  C08 AH1 A 500      14.251  22.635   3.141  1.00 19.69     0.133 C
BRANCH 26 27
HETATM   27  C09 AH1 A 500      14.749  21.262   2.874  1.00 19.77     0.000 A
HETATM   28  C10 AH1 A 500      15.736  20.703   3.679  1.00 19.95    -0.002 A
HETATM   29  C11 AH1 A 500      16.224  19.422   3.408  1.00 22.27    -0.000 A
HETATM   30  C12 AH1 A 500      15.735  18.682   2.318  1.00 18.67    -0.000 A
HETATM   31  C13 AH1 A 500      14.754  19.255   1.533  1.00 19.27    -0.000 A
HETATM   32  C14 AH1 A 500      14.263  20.555   1.824  1.00 17.22    -0.002 A
ENDBRANCH 26 27
ENDBRANCH 1 26
BRANCH 7 33
HETATM   33  C33 AH1 A 500      11.582  21.889   5.189  1.00 19.18     0.174 C
BRANCH 33 34
HETATM   34  O34 AH1 A 500      11.095  21.569   3.831  1.00 22.93    -0.329 OA
BRANCH 34 35
HETATM   35  C35 AH1 A 500      10.181  22.712   2.981  1.00 22.24     0.094 A
HETATM   36  C36 AH1 A 500       8.781  22.678   2.995  1.00 23.26     0.024 A
HETATM   37  C37 AH1 A 500       8.013  23.836   2.699  1.00 26.71     0.002 A
HETATM   38  C38 AH1 A 500       8.644  25.057   2.373  1.00 26.63     0.000 A
HETATM   39  C39 AH1 A 500      10.060  25.089   2.344  1.00 26.74     0.002 A
HETATM   40  C40 AH1 A 500      10.816  23.903   2.656  1.00 23.99     0.024 A
ENDBRANCH 34 35
ENDBRANCH 33 34
ENDBRANCH 7 33
TORSDOF 10
ENDMDL
