REMARK 10 active torsions:
REMARK status: ('A' for Active; 'I' for Inactive)
REMARK 1 A between atoms: C08_8 and N01_1
REMARK 2 A between atoms: C16_16 and N03_3
REMARK 3 A between atoms: C04_4 and C23_23
REMARK 4 A between atoms: C07_7 and C33_33
REMARK 5 A between atoms: C08_8 and C09_9
REMARK 6 A between atoms: C16_16 and C17_17
REMARK 7 A between atoms: C23_23 and O24_24
REMARK 8 A between atoms: C25_25 and O24_24
REMARK 9 A between atoms: C33_33 and O34_34
REMARK 10 A between atoms: C35_35 and O34_34
ROOT
HETATM    1  N01 AH1 A 500      10.622  39.293  10.565  1.00 19.81    -0.295 N
HETATM    2  C02 AH1 A 500      11.146  37.978  10.627  1.00 20.51     0.324 C
HETATM    3  N03 AH1 A 500      10.361  36.897  10.527  1.00 19.11    -0.295 N
HETATM    4  C04 AH1 A 500       9.148  36.836   9.688  1.00 20.96     0.149 C
HETATM    5  C05 AH1 A 500       7.939  37.634  10.357  1.00 18.24     0.207 C
HETATM    6  C06 AH1 A 500       8.138  39.179  10.353  1.00 18.09     0.207 C
HETATM    7  C07 AH1 A 500       9.330  39.685  11.212  1.00 19.29     0.149 C
HETATM    8  O15 AH1 A 500      12.386  37.807  10.791  1.00 17.64    -0.247 OA
HETATM    9  O31 AH1 A 500       6.815  37.390   9.609  1.00 14.56    -0.218 OA
HETATM   10  O32 AH1 A 500       6.981  39.728  10.873  1.00 21.72    -0.218 OA
ENDROOT
BRANCH 4 11
HETATM   11  C23 AH1 A 500       9.454  37.481   8.374  1.00 19.82     0.174 C
BRANCH 11 12
HETATM   12  O24 AH1 A 500       8.218  37.965   7.750  1.00 22.97    -0.329 OA
BRANCH 12 13
HETATM   13  C25 AH1 A 500       7.609  36.655   8.534  1.00 22.46     0.094 A
HETATM   14  C26 AH1 A 500       6.255  36.995   8.841  1.00 26.14     0.024 A
HETATM   15  C27 AH1 A 500       5.499  36.127   9.677  1.00 25.90     0.002 A
HETATM   16  C28 AH1 A 500       6.097  34.934  10.185  1.00 25.42     0.000 A
HETATM   17  C29 AH1 A 500       7.431  34.585   9.870  1.00 25.26     0.002 A
HETATM   18  C30 AH1 A 500       8.181  35.450   9.052  1.00 24.88     0.024 A
ENDBRANCH 12 13
ENDBRANCH 11 12
ENDBRANCH 4 11
BRANCH 3 19
HETATM   19  C16 AH1 A 500      10.870  35.606  10.823  1.00 18.94     0.133 C
BRANCH 19 20
HETATM   20  C17 AH1 A 500      10.798  34.086  10.802  1.00 21.20     0.000 A
HETATM   21  C18 AH1 A 500      11.170  33.310  11.939  1.00 19.23    -0.002 A
HETATM   22  C19 AH1 A 500      11.030  31.918  11.881  1.00 22.81    -0.000 A
HETATM   23  C20 AH1 A 500      10.534  31.268  10.749  1.00 19.48    -0.000 A
HETATM   24  C21 AH1 A 500      10.180  32.007   9.616  1.00 21.62    -0.000 A
HETATM   25  C22 AH1 A 500      10.299  33.420   9.629  1.00 19.56    -0.002 A
ENDBRANCH 19 20
ENDBRANCH 3 19
BRANCH 1 26
HETATM   26  C08 AH1 A 500      11.579  40.421  10.464  1.00 19.69     0.133 C
BRANCH 26 27
HETATM   27  C09 AH1 A 500      12.399  41.602  10.102  1.00 19.77     0.000 A
HETATM   28  C10 AH1 A 500      12.395  42.737  10.904  1.00 19.95    -0.002 A
HETATM   29  C11 AH1 A 500      13.149  43.856  10.544  1.00 22.27    -0.000 A
HETATM   30  C12 AH1 A 500      13.913  43.860   9.367  1.00 18.67    -0.000 A
HETATM   31  C13 AH1 A 500      13.906  42.723   8.583  1.00 19.27    -0.000 A
HETATM   32  C14 AH1 A 500      13.139  41.590   8.964  1.00 17.22    -0.002 A
ENDBRANCH 26 27
ENDBRANCH 1 26
BRANCH 7 33
HETATM   33  C33 AH1 A 500       9.284  39.047  12.637  1.00 19.18     0.174 C
BRANCH 33 34
HETATM   34  O34 AH1 A 500       8.957  39.902  13.798  1.00 22.93    -0.329 OA
BRANCH 34 35
HETATM   35  C35 AH1 A 500       8.665  41.167  15.043  1.00 22.24     0.094 A
HETATM   36  C36 AH1 A 500       7.690  42.165  15.181  1.00 23.26     0.024 A
HETATM   37  C37 AH1 A 500       7.771  43.135  16.214  1.00 26.71     0.002 A
HETATM   38  C38 AH1 A 500       8.846  43.127  17.130  1.00 26.63     0.000 A
HETATM   39  C39 AH1 A 500       9.841  42.129  16.983  1.00 26.74     0.002 A
HETATM   40  C40 AH1 A 500       9.732  41.150  15.932  1.00 23.99     0.024 A
ENDBRANCH 34 35
ENDBRANCH 33 34
ENDBRANCH 7 33
TORSDOF 10
